/*--------------------------------*- C++ -*----------------------------------*\
| =========                 |                                                 |
| \\      /  F ield         | OpenFOAM: The Open Source CFD Toolbox           |
|  \\    /   O peration     | Version:  2306                                  |
|   \\  /    A nd           | Website:  www.openfoam.com                      |
|    \\/     M anipulation  |                                                 |
\*---------------------------------------------------------------------------*/
FoamFile
{
    version     2.0;
    format      ascii;
    arch        "LSB;label=32;scalar=64";
    class       polyBoundaryMesh;
    location    "constant/polyMesh";
    object      boundary;
}
// * * * * * * * * * * * * * * * * * * * * * * * * * * * * * * * * * * * * * //

7
(
    bottom
    {
        type            wall;
        inGroups        1(wall);
        nFaces          90;
        startFace       9145;
    }
    left
    {
        type            wall;
        inGroups        1(wall);
        nFaces          45;
        startFace       9235;
    }
    right
    {
        type            wall;
        inGroups        1(wall);
        nFaces          45;
        startFace       9280;
    }
    leftTop
    {
        type            wall;
        inGroups        1(wall);
        nFaces          30;
        startFace       9325;
    }
    rightTop
    {
        type            wall;
        inGroups        1(wall);
        nFaces          30;
        startFace       9355;
    }
    top
    {
        type            wall;
        inGroups        1(wall);
        nFaces          70;
        startFace       9385;
    }
    frontAndBack
    {
        type            empty;
        inGroups        1(empty);
        nFaces          9300;
        startFace       9455;
    }
)

// ************************************************************************* //
