/*--------------------------------*- C++ -*----------------------------------*\
| =========                 |                                                 |
| \\      /  F ield         | OpenFOAM: The Open Source CFD Toolbox           |
|  \\    /   O peration     | Version:  v2306                                 |
|   \\  /    A nd           | Website:  www.openfoam.com                      |
|    \\/     M anipulation  |                                                 |
\*---------------------------------------------------------------------------*/
FoamFile
{
    version     2.0;
    format      ascii;
    class       dictionary;
    object      blockMeshDict;
}
// * * * * * * * * * * * * * * * * * * * * * * * * * * * * * * * * * * * * * //

scale   0.001;

x1  4;
x2  8.1;
x3  12.1;
y1  0.15;
y2  1.20;
y3  2.00;
z0  1;

vertices
(
    (0 0 0)			// 0
    ($x1 0 0)		// 1
    ($x2 0 0)		// 2
    ($x3 0 0)		// 3

    (0 $y1 0)		// 4
    ($x1 $y1 0)		// 5
    ($x2 $y1 0)		// 6
    ($x3 $y1 0)		// 7

    (0 $y2 0)		// 8
    ($x1 $y2 0)		// 9
    ($x2 $y2 0)		// 10
    ($x3 $y2 0)		// 11

	($x1 $y3 0)		// 12
	($x2 $y3 0)		// 13

    (0 0 $z0)			// 0
    ($x1 0 $z0)		// 1
    ($x2 0 $z0)		// 2
    ($x3 0 $z0)		// 3

    (0 $y1 $z0)		// 4
    ($x1 $y1 $z0)		// 5
    ($x2 $y1 $z0)		// 6
    ($x3 $y1 $z0)		// 7

    (0 $y2 $z0)		// 8
    ($x1 $y2 $z0)		// 9
    ($x2 $y2 $z0)		// 10
    ($x3 $y2 $z0)		// 11

	($x1 $y3 $z0)		// 12
	($x2 $y3 $z0)		// 13
);

blocks
(
    //hex (0 1 2 3 4 5 6 7) (20 20 1) simpleGrading (1 1 1)
    hex (0 1 5 4 14 15 19 18) (20 20 1) simpleGrading (1 1 1)
    hex (1 2 6 5 15 16 20 19) (20 20 1) simpleGrading (1 1 1)
    hex (2 3 7 6 16 17 21 20) (20 20 1) simpleGrading (1 1 1)

    hex (4 5 9 8 18 19 23 22) (20 20 1) simpleGrading (1 1 1)
    hex (5 6 10 9 19 20 24 23) (20 20 1) simpleGrading (1 1 1)
    hex (6 7 11 10 20 21 25 24) (20 20 1) simpleGrading (1 1 1)

	hex (9 10 13 12 23 24 27 26) (20 20 1) simpleGrading (1 1 1)
);

edges
(
);

boundary
(
    bottom
    {
        type wall;
        faces
        (
            (0 1 15 14)
			(1 2 16 15)
			(2 3 17 16)
        );
    }
    left
    {
        type wall;
        faces
        (
            (0 4 18 14)
            (4 8 22 18)
        );
    }
    right
    {
        type wall;
        faces
        (
            (3 7 21 17)
			(7 11 25 21)
        );
    }
    leftTop
    {
        type wall;
        faces
        (
            (8 9 23 22)
        );
    }
    rightTop
    {
        type wall;
        faces
        (
            (10 11 25 24)
        );
    }
    top
    {
        type wall;
        faces
        (
            (12 13 27 26)

			(9 12 26 23)
			(10 13 27 24)
        );
    }
    frontAndBack
    {
        type empty;
        faces
        (
			(0 1 5 4)
			(1 2 6 5)
			(2 3 7 6)
			(4 5 9 8)
			(5 6 10 9)
			(6 7 11 10)
			(9 10 13 12)

    		(14 15 19 18)
    		(15 16 20 19) 
    		(16 17 21 20) 

    		(18 19 23 22) 
    		(19 20 24 23) 
		    (20 21 25 24) 

			(23 24 27 26) 
        );
    }

	/*
	base
	{
		type	cutPlane;
		faces
		(
			(9 10 24 23)
		);
	}
	*/
);


// ************************************************************************* //
