/*--------------------------------*- C++ -*----------------------------------*\
| =========                 |                                                 |
| \\      /  F ield         | OpenFOAM: The Open Source CFD Toolbox           |
|  \\    /   O peration     | Version:  v2306                                 |
|   \\  /    A nd           | Website:  www.openfoam.com                      |
|    \\/     M anipulation  |                                                 |
\*---------------------------------------------------------------------------*/
FoamFile
{
    version     2.0;
    format      ascii;
    class       dictionary;
    object      fvOptions;
}
// * * * * * * * * * * * * * * * * * * * * * * * * * * * * * * * * * * * * * //
x1  4e-3;
x2  8.1e-3;
x3  12.1e-3;
y1  0.15e-3;
y2  1.20e-3;
y3  2.00e-3;
z0  1e-3;

heatSource
{
    type        heatSource; // Type of source
    value       uniform 10;
    region      boxToCell;    
    box         ($x1 $y2 0) ($x2 $y3 $z0);
}

