/*--------------------------------*- C++ -*----------------------------------*\
| =========                 |                                                 |
| \\      /  F ield         | OpenFOAM: The Open Source CFD Toolbox           |
|  \\    /   O peration     | Version:  v2306                                 |
|   \\  /    A nd           | Website:  www.openfoam.com                      |
|    \\/     M anipulation  |                                                 |
\*---------------------------------------------------------------------------*/
FoamFile
{
    version     2.0;
    format      ascii;
    class       dictionary;
    object      fvOptions;
}
// * * * * * * * * * * * * * * * * * * * * * * * * * * * * * * * * * * * * * //

heatSource
{
    type        scalarSemiImplicitSource; // Type of source
    active      yes;                      // Activation switch

    scalarSemiImplicitSourceCoeffs
    {
        selectionMode   cellZone;//all;// Selection mode (could also be points, etc.)
        cellZone        hSource;           // Name of the cell zone where heat is generated

        volumeMode      specific;//[values are given as [variable]/m3 // Mode of specification
        injectionRateSuSp
        {
            T   (1.45e5 0);               // Source term (10 W/m^3, for example)
        }
    }
}

