/*--------------------------------*- C++ -*----------------------------------*\
| =========                 |                                                 |
| \\      /  F ield         | OpenFOAM: The Open Source CFD Toolbox           |
|  \\    /   O peration     | Version:  v2306                                 |
|   \\  /    A nd           | Website:  www.openfoam.com                      |
|    \\/     M anipulation  |                                                 |
\*---------------------------------------------------------------------------*/
FoamFile
{
    version     2.0;
    format      ascii;
    class       dictionary;
    object      topoSetDict;
}
// * * * * * * * * * * * * * * * * * * * * * * * * * * * * * * * * * * * * * //

//scale   0.001;

x1  8e-3;
x2  13.1e-3;
x3  21.1e-3;
y1  1.2e-3;
y2  2.8e-3; // 1.6+1.2
y3  3.8e-3; // +1.0
z0  1e-3;

actions
(
    {
        name    c0;
        type    cellSet;
        action  clear;
    }
    {
        name    c0;
        type    cellSet;
        action  new;
        source  boxToCell;
        sourceInfo
        {
            box ($x1 $y2 0) ($x2 $y3 $z0); // Edit box bounds as required
        }
    }
    {
        name    hSource;
        type    cellZoneSet;
        action  new;
        source  setToCellZone;
        sourceInfo
        {
            set c0;
        }
    }
);

// ************************************************************************* //
